xflr5 v6.43

 Calculated polar for: NACA 23012_Helicopteros

 1 1 Reynolds number fixed          Mach number fixed         

 xtrf =   1.000 (top)        1.000 (bottom)
 Mach =   0.000     Re =     0.500 e 6     Ncrit =   9.000

  alpha     CL        CD       CDp       Cm    Top Xtr Bot Xtr   Cpmin    Chinge    XCp    
 ------- -------- --------- --------- -------- ------- ------- -------- --------- ---------
 -20.000  -0.7515   0.24634   0.24378   0.0649  1.0000  0.0127  -1.8060   0.0000   0.3165
 -19.500  -0.7342   0.24023   0.23766   0.0610  1.0000  0.0134  -1.7697   0.0000   0.3139
 -19.000  -0.7170   0.23358   0.23101   0.0568  1.0000  0.0144  -1.7773   0.0000   0.3107
 -18.500  -0.7028   0.22573   0.22317   0.0506  1.0000  0.0150  -1.9792   0.0000   0.3039
 -18.000  -0.6885   0.21802   0.21547   0.0463  1.0000  0.0151  -2.0365   0.0000   0.2997
 -17.500  -0.6698   0.21212   0.20957   0.0445  1.0000  0.0154  -1.8625   0.0000   0.2996
 -17.000  -0.6532   0.20615   0.20360   0.0414  1.0000  0.0159  -1.7895   0.0000   0.2973
 -16.500  -0.6374   0.19966   0.19712   0.0380  1.0000  0.0167  -1.7794   0.0000   0.2941
 -16.000  -0.6239   0.19174   0.18921   0.0333  1.0000  0.0182  -1.9142   0.0000   0.2883
 -15.500  -0.6213   0.18237   0.17985   0.0258  1.0000  0.0185  -2.2617   0.0000   0.2768
 -12.000  -0.5449   0.13039   0.12797   0.0066  1.0000  0.0234  -2.1151   0.0000   0.2509
 -11.500  -0.5388   0.12256   0.12015   0.0033  1.0000  0.0245  -2.1419   0.0000   0.2456
  -7.500  -0.7059   0.02419   0.01873  -0.0104  1.0000  0.0226  -4.8935   0.0000   0.2281
  -7.000  -0.6733   0.02263   0.01711  -0.0067  1.0000  0.0235  -4.5380   0.0000   0.2333
  -6.500  -0.6347   0.02080   0.01504  -0.0039  0.9993  0.0250  -4.2320   0.0000   0.2374
  -6.000  -0.5652   0.01759   0.01128  -0.0068  0.9947  0.0266  -3.9374   0.0000   0.2315
  -5.500  -0.4928   0.01585   0.00953  -0.0107  0.9891  0.0286  -3.4853   0.0000   0.2221
  -5.000  -0.4194   0.01432   0.00786  -0.0144  0.9825  0.0316  -3.0731   0.0000   0.2094
  -4.500  -0.3444   0.01317   0.00671  -0.0184  0.9748  0.0348  -2.6876   0.0000   0.1900
  -4.000  -0.2765   0.01200   0.00556  -0.0208  0.9577  0.0388  -2.3345   0.0000   0.1683
  -3.500  -0.2203   0.01116   0.00468  -0.0203  0.9290  0.0437  -2.0193   0.0000   0.1509
  -3.000  -0.1688   0.01050   0.00397  -0.0189  0.8964  0.0497  -1.7427   0.0000   0.1309
  -2.500  -0.1176   0.01002   0.00338  -0.0173  0.8565  0.0584  -1.4901   0.0000   0.0946
  -2.000  -0.0665   0.00960   0.00287  -0.0159  0.8102  0.0728  -1.2436   0.0000   0.0003
  -1.500  -0.0164   0.00903   0.00238  -0.0145  0.7586  0.1390  -1.0265   0.0000  -0.6578
  -1.000   0.0188   0.00692   0.00201  -0.0110  0.7069  0.6564  -0.8503   0.0000   0.8447
   0.000   0.1149   0.00678   0.00208  -0.0063  0.5949  0.8648  -0.6969   0.0000   0.3015
   0.500   0.1651   0.00708   0.00222  -0.0042  0.5379  0.9158  -0.7653   0.0000   0.2718
   1.000   0.2192   0.00755   0.00245  -0.0030  0.4782  0.9535  -0.8405   0.0000   0.2594
   1.500   0.2856   0.00806   0.00263  -0.0050  0.4161  0.9686  -0.9278   0.0000   0.2630
   2.000   0.3587   0.00858   0.00281  -0.0088  0.3566  0.9773  -1.0242   0.0000   0.2698
   2.500   0.4332   0.00909   0.00302  -0.0130  0.3107  0.9847  -1.1278   0.0000   0.2751
   3.000   0.5081   0.00950   0.00324  -0.0174  0.2813  0.9914  -1.2365   0.0000   0.2789
   4.000   0.6471   0.01021   0.00370  -0.0239  0.2467  1.0000  -1.4612   0.0000   0.2810
   4.500   0.6925   0.01053   0.00396  -0.0222  0.2361  1.0000  -1.5581   0.0000   0.2756
   5.500   0.7830   0.01122   0.00459  -0.0184  0.2180  1.0000  -1.7661   0.0000   0.2661
   6.000   0.8282   0.01161   0.00498  -0.0164  0.2100  1.0000  -1.8796   0.0000   0.2619
   6.500   0.8732   0.01208   0.00544  -0.0145  0.2024  1.0000  -2.0013   0.0000   0.2581
   7.000   0.9187   0.01254   0.00589  -0.0127  0.1949  1.0000  -2.1349   0.0000   0.2548
   7.500   0.9653   0.01295   0.00637  -0.0110  0.1875  1.0000  -2.2863   0.0000   0.2518
   8.000   1.0114   0.01347   0.00691  -0.0094  0.1802  1.0000  -2.4749   0.0000   0.2491
   8.500   1.0578   0.01402   0.00748  -0.0079  0.1726  1.0000  -2.7113   0.0000   0.2466
   9.000   1.1055   0.01449   0.00801  -0.0067  0.1644  1.0000  -2.9854   0.0000   0.2445
   9.500   1.1533   0.01497   0.00857  -0.0056  0.1555  1.0000  -3.2909   0.0000   0.2426
  10.000   1.2006   0.01551   0.00919  -0.0045  0.1462  1.0000  -3.6219   0.0000   0.2408
  10.500   1.2469   0.01613   0.00987  -0.0033  0.1365  1.0000  -3.9695   0.0000   0.2390
  11.000   1.2917   0.01685   0.01065  -0.0021  0.1263  1.0000  -4.3381   0.0000   0.2371
  11.500   1.3361   0.01760   0.01149  -0.0007  0.1151  1.0000  -4.7295   0.0000   0.2353
  12.000   1.3772   0.01854   0.01249   0.0009  0.1026  1.0000  -5.1196   0.0000   0.2332
  12.500   1.4145   0.01969   0.01369   0.0030  0.0888  1.0000  -5.5055   0.0000   0.2309
  13.000   1.4442   0.02117   0.01520   0.0059  0.0742  1.0000  -5.8918   0.0000   0.2280
  13.500   1.4635   0.02307   0.01714   0.0101  0.0611  1.0000  -6.2339   0.0000   0.2244
  14.000   1.4759   0.02560   0.01973   0.0140  0.0504  1.0000  -6.5415   0.0000   0.2208
  14.500   1.4823   0.02890   0.02314   0.0172  0.0426  1.0000  -6.8155   0.0000   0.2177
  15.000   1.4823   0.03333   0.02775   0.0188  0.0373  1.0000  -7.0482   0.0000   0.2155
  15.500   1.4744   0.03947   0.03410   0.0185  0.0339  1.0000  -7.2235   0.0000   0.2145
  16.000   1.4542   0.04824   0.04312   0.0155  0.0316  1.0000  -7.3076   0.0000   0.2151
  16.500   1.4184   0.06022   0.05539   0.0103  0.0305  1.0000  -7.2658   0.0000   0.2173
  17.000   1.3757   0.07369   0.06917   0.0043  0.0297  1.0000  -7.1571   0.0000   0.2202
  17.500   1.3266   0.08846   0.08421  -0.0022  0.0293  1.0000  -6.9809   0.0000   0.2238
  18.000   1.2830   0.10272   0.09870  -0.0086  0.0286  1.0000  -6.8223   0.0000   0.2278
  18.500   1.2482   0.11592   0.11205  -0.0147  0.0276  1.0000  -6.7077   0.0000   0.2318
  19.000   1.2231   0.12753   0.12372  -0.0202  0.0263  1.0000  -6.6549   0.0000   0.2355
  19.500   1.2087   0.13779   0.13417  -0.0254  0.0250  1.0000  -6.6786   0.0000   0.2389
  20.000   1.1974   0.14758   0.14406  -0.0307  0.0237  1.0000  -6.7203   0.0000   0.2423
  45.000   0.3	    0.3		
  90.000   0	    1
